Version 4
SHEET 1 2176 1260
WIRE 208 -16 48 -16
WIRE 432 -16 304 -16
WIRE 480 -16 432 -16
WIRE 576 -16 480 -16
WIRE 752 -16 656 -16
WIRE 960 -16 752 -16
WIRE 288 64 288 32
WIRE 432 64 432 -16
WIRE 960 64 960 -16
WIRE -448 80 -448 16
WIRE -288 80 -288 32
WIRE -128 80 -128 32
WIRE 48 80 48 -16
WIRE 480 80 480 -16
WIRE 752 80 752 -16
WIRE -288 192 -288 160
WIRE -128 192 -128 160
WIRE -448 208 -448 160
WIRE 48 224 48 160
WIRE 480 224 480 144
WIRE 480 224 48 224
WIRE 752 224 752 144
WIRE 752 224 480 224
WIRE 960 224 960 144
WIRE 960 224 752 224
WIRE 48 256 48 224
WIRE -288 336 -352 336
WIRE 32 336 -64 336
WIRE 336 336 240 336
WIRE 368 336 336 336
WIRE 576 336 432 336
WIRE 640 336 576 336
WIRE 768 336 704 336
WIRE -288 416 -416 416
WIRE 32 416 -64 416
WIRE 128 416 128 400
WIRE 128 416 32 416
WIRE 576 416 576 336
WIRE 128 464 128 416
WIRE 336 480 336 336
WIRE 448 480 336 480
WIRE 896 480 704 480
WIRE -288 496 -352 496
WIRE -32 496 -64 496
WIRE -352 560 -352 496
WIRE 448 560 320 560
WIRE 768 560 768 336
WIRE 768 560 704 560
WIRE 896 560 768 560
WIRE -32 576 -32 496
WIRE 128 576 128 544
WIRE 128 576 -32 576
WIRE 32 608 32 416
WIRE 128 608 128 576
WIRE -416 736 -416 416
WIRE -352 736 -352 640
WIRE -352 736 -416 736
WIRE -144 736 -352 736
WIRE 32 736 32 672
WIRE 32 736 -144 736
WIRE 128 736 128 688
WIRE 128 736 32 736
WIRE -144 768 -144 736
WIRE 576 784 576 704
WIRE -352 1008 -352 944
WIRE -352 1136 -352 1088
FLAG 48 256 0
FLAG 960 -16 Out
FLAG 576 784 0
FLAG 896 480 Gate
FLAG 288 64 Gate
FLAG 896 560 Source
FLAG 432 64 Source
FLAG -128 192 0
FLAG 240 336 VCC
FLAG -128 32 VCC
FLAG -448 208 0
FLAG -448 16 DUTY
FLAG -352 336 DUTY
FLAG -144 768 0
FLAG -288 192 0
FLAG -288 32 V+
FLAG 128 400 V+
FLAG 32 336 PULSE
FLAG 320 560 PULSE
FLAG -352 944 IDEALPWM
FLAG -352 1136 0
SYMBOL voltage 48 64 R0
WINDOW 123 24 124 Left 2
WINDOW 39 0 0 Left 0
SYMATTR InstName VIN
SYMATTR Value 80
SYMBOL nmos 208 32 R270
WINDOW 0 108 4 VRight 2
WINDOW 3 74 -22 VRight 2
SYMATTR InstName MOSFET
SYMATTR Value IPT020N10N3
SYMBOL schottky 496 144 R180
WINDOW 0 -79 60 Left 2
WINDOW 3 -125 -2 Left 2
SYMATTR InstName DIODE
SYMATTR Value MBRS1100
SYMATTR Description Diode
SYMATTR Type diode
SYMBOL ind 560 0 R270
WINDOW 0 32 56 VTop 2
WINDOW 3 5 56 VBottom 2
SYMATTR InstName L1
SYMATTR Value 33.33µ
SYMBOL cap 736 80 R0
SYMATTR InstName C1
SYMATTR Value .47µ
SYMBOL res 944 48 R0
SYMATTR InstName RLOAD
SYMATTR Value 6
SYMBOL voltage -352 992 R0
WINDOW 0 20 18 Left 2
WINDOW 3 25 92 Left 2
WINDOW 123 29 115 Left 2
WINDOW 39 0 0 Left 0
SYMATTR InstName VPULSE
SYMATTR Value PULSE(0 10 0 1n 1n {.375*1.429u} 1.429u)
SYMBOL PowerProducts\\LTC4446 576 560 R0
SYMATTR InstName U1
SYMBOL voltage -128 64 R0
WINDOW 123 24 124 Left 2
WINDOW 39 0 0 Left 0
SYMATTR InstName VCC
SYMATTR Value 13
SYMBOL zener 368 352 R270
WINDOW 0 49 31 VTop 2
WINDOW 3 -18 30 VBottom 2
SYMATTR InstName D1
SYMATTR Value 1N5378B
SYMATTR Description Diode
SYMATTR Type diode
SYMBOL cap 704 320 R90
WINDOW 0 0 32 VBottom 2
WINDOW 3 32 32 VTop 2
SYMATTR InstName C2
SYMATTR Value .33µ
SYMBOL SpecialFunctions\\LTC6992-1 -176 416 R0
SYMATTR InstName U2
SYMBOL voltage -448 64 R0
WINDOW 123 24 124 Left 2
WINDOW 39 0 0 Left 0
SYMATTR InstName VDUTY
SYMATTR Value .375
SYMBOL res -368 544 R0
SYMATTR InstName RSET
SYMATTR Value 71.4k
SYMBOL res 112 448 R0
SYMATTR InstName R1
SYMATTR Value 976k
SYMBOL res 112 592 R0
SYMATTR InstName R2
SYMATTR Value 102k
SYMBOL cap 16 608 R0
SYMATTR InstName C3
SYMATTR Value .1µ
SYMBOL voltage -288 64 R0
WINDOW 123 24 124 Left 2
WINDOW 39 0 0 Left 0
SYMATTR InstName V+
SYMATTR Value 5
TEXT 32 -144 Left 2 !.tran 1m
