Version 4
SHEET 1 2176 1684
WIRE 64 -16 48 -16
WIRE 208 -16 144 -16
WIRE 432 -16 304 -16
WIRE 480 -16 432 -16
WIRE 576 -16 480 -16
WIRE 768 -16 656 -16
WIRE 960 -16 768 -16
WIRE 1552 -16 1456 -16
WIRE 768 16 768 -16
WIRE -416 64 -416 16
WIRE -320 64 -320 16
WIRE -208 64 -208 16
WIRE -112 64 -112 16
WIRE 288 64 288 32
WIRE 432 64 432 -16
WIRE 960 64 960 -16
WIRE 48 80 48 -16
WIRE 480 80 480 -16
WIRE 768 112 768 80
WIRE -416 192 -416 144
WIRE -320 192 -320 144
WIRE -208 192 -208 144
WIRE -112 192 -112 144
WIRE 48 224 48 160
WIRE 480 224 480 144
WIRE 480 224 48 224
WIRE 768 224 768 192
WIRE 768 224 480 224
WIRE 960 224 960 144
WIRE 960 224 768 224
WIRE 48 256 48 224
WIRE 1552 304 1552 -16
WIRE 1552 304 1456 304
WIRE 1248 320 1168 320
WIRE 1408 320 1312 320
WIRE 1456 336 1456 304
WIRE 576 384 480 384
WIRE 864 384 800 384
WIRE 1088 384 1072 384
WIRE -208 400 -272 400
WIRE -80 400 -144 400
WIRE 64 400 -80 400
WIRE 160 400 128 400
WIRE 256 400 160 400
WIRE 1552 400 1552 304
WIRE 1168 448 1168 320
WIRE 1200 448 1168 448
WIRE 1296 448 1264 448
WIRE 1408 448 1408 320
WIRE 1408 448 1376 448
WIRE 1456 448 1456 416
WIRE 384 464 384 448
WIRE 480 464 384 464
WIRE 576 464 480 464
WIRE 928 464 800 464
WIRE -80 480 -80 400
WIRE 384 512 384 464
WIRE -208 544 -400 544
WIRE 160 544 160 400
WIRE 160 544 48 544
WIRE 576 544 544 544
WIRE 864 544 800 544
WIRE 1328 544 1328 528
WIRE 1456 544 1456 512
WIRE 1552 544 1552 480
WIRE 1552 544 1456 544
WIRE 1408 560 1408 448
WIRE 1408 560 1360 560
WIRE 1552 560 1552 544
WIRE 1552 560 1408 560
WIRE 1088 576 1088 384
WIRE 1168 576 1168 448
WIRE 1168 576 1088 576
WIRE 1296 576 1168 576
WIRE 1408 592 1360 592
WIRE 864 608 864 544
WIRE 1552 608 1552 560
WIRE -272 624 -272 400
WIRE -272 624 -400 624
WIRE -208 624 -272 624
WIRE 176 624 48 624
WIRE 384 624 384 592
WIRE 544 624 544 544
WIRE 544 624 384 624
WIRE 1328 640 1328 608
WIRE 384 656 384 624
WIRE 480 656 480 464
WIRE 1552 720 1552 688
WIRE 384 784 384 736
WIRE 480 784 480 720
WIRE 480 784 384 784
WIRE 656 784 480 784
WIRE 864 784 864 688
WIRE 864 784 656 784
WIRE 928 784 928 464
WIRE 928 784 864 784
WIRE 656 816 656 784
WIRE -80 848 -80 768
FLAG 48 256 0
FLAG 960 -16 Out
FLAG -80 848 0
FLAG -400 544 Gate
FLAG 288 64 Gate
FLAG -400 624 Source
FLAG 432 64 Source
FLAG 256 400 VCC
FLAG -320 16 VCC
FLAG 864 384 DUTY
FLAG 656 816 0
FLAG -416 16 V+
FLAG 384 448 V+
FLAG 480 384 PULSE
FLAG 176 624 PULSE
FLAG 1552 720 0
FLAG -208 192 0
FLAG -208 16 +
FLAG 1328 528 +
FLAG -112 192 0
FLAG -112 16 -
FLAG 1328 640 -
FLAG 1408 592 Vo
FLAG 1456 -16 Out
FLAG -416 192 0
FLAG -320 192 0
FLAG 1072 384 DUTY
SYMBOL voltage 48 64 R0
WINDOW 123 24 124 Left 2
WINDOW 39 0 0 Left 0
SYMATTR InstName VIN
SYMATTR Value 80
SYMBOL nmos 208 32 R270
WINDOW 0 108 4 VRight 2
WINDOW 3 74 -22 VRight 2
SYMATTR InstName MOSFET
SYMATTR Value IPT020N10N3
SYMBOL schottky 496 144 R180
WINDOW 0 -79 60 Left 2
WINDOW 3 -125 -2 Left 2
SYMATTR InstName DIODE
SYMATTR Value MBRS1100
SYMATTR Description Diode
SYMATTR Type diode
SYMBOL ind 560 0 R270
WINDOW 0 32 56 VTop 2
WINDOW 3 5 56 VBottom 2
SYMATTR InstName L1
SYMATTR Value 33.33µ
SYMBOL res 944 48 R0
SYMATTR InstName RLOAD
SYMATTR Value 6
SYMBOL PowerProducts\\LTC4446 -80 624 M0
SYMATTR InstName U1
SYMBOL voltage -320 48 R0
WINDOW 123 24 124 Left 2
WINDOW 39 0 0 Left 0
SYMATTR InstName VCC
SYMATTR Value 13
SYMBOL zener 128 416 M270
WINDOW 0 49 31 VTop 2
WINDOW 3 -18 30 VBottom 2
SYMATTR InstName D1
SYMATTR Value 1N5378B
SYMATTR Description Diode
SYMATTR Type diode
SYMBOL cap -208 384 M90
WINDOW 0 0 32 VBottom 2
WINDOW 3 32 32 VTop 2
SYMATTR InstName C2
SYMATTR Value .33µ
SYMBOL SpecialFunctions\\LTC6992-1 688 464 M0
SYMATTR InstName U2
SYMBOL res 880 592 M0
SYMATTR InstName RSET
SYMATTR Value 71.4k
SYMBOL res 400 496 M0
SYMATTR InstName R1
SYMATTR Value 976k
SYMBOL res 400 640 M0
SYMATTR InstName R2
SYMATTR Value 102k
SYMBOL cap 496 656 M0
SYMATTR InstName C3
SYMATTR Value .1µ
SYMBOL voltage -416 48 R0
WINDOW 123 24 124 Left 2
WINDOW 39 0 0 Left 0
SYMATTR InstName V+
SYMATTR Value 5
SYMBOL cap 752 16 R0
SYMATTR InstName C1
SYMATTR Value .47µ
SYMBOL res 752 96 R0
SYMATTR InstName RESR
SYMATTR Value 150m
SYMBOL res 160 -32 R90
WINDOW 0 0 56 VBottom 2
WINDOW 3 32 56 VTop 2
SYMATTR InstName RESRIN
SYMATTR Value 150m
SYMBOL OpAmps\\LT1001A 1328 512 M0
SYMATTR InstName U3
SYMBOL res 1392 432 R90
WINDOW 0 0 56 VBottom 2
WINDOW 3 32 56 VTop 2
SYMATTR InstName R3
SYMATTR Value 10Meg
SYMBOL cap 1264 432 R90
WINDOW 0 0 32 VBottom 2
WINDOW 3 32 32 VTop 2
SYMATTR InstName C4
SYMATTR Value .38p
SYMBOL cap 1312 304 R90
WINDOW 0 0 32 VBottom 2
WINDOW 3 32 32 VTop 2
SYMATTR InstName C5
SYMATTR Value .01p
SYMBOL cap 1440 448 R0
SYMATTR InstName C6
SYMATTR Value 3.88p
SYMBOL res 1440 320 R0
SYMATTR InstName R4
SYMATTR Value 18k
SYMBOL res 1536 384 R0
SYMATTR InstName R5
SYMATTR Value 1Meg
SYMBOL res 1536 592 R0
SYMATTR InstName R6
SYMATTR Value 2Meg
SYMBOL voltage -208 48 R0
WINDOW 3 25 105 Left 2
SYMATTR Value 5
SYMATTR InstName V2
SYMBOL voltage -112 48 R0
WINDOW 3 23 101 Left 2
SYMATTR Value -5
SYMATTR InstName V3
